Version 4
SHEET 1 880 692
WIRE -80 -64 -96 -64
WIRE 16 -64 0 -64
WIRE 32 -64 16 -64
WIRE 128 -64 112 -64
WIRE -96 -32 -96 -64
WIRE 64 80 64 48
WIRE 16 96 16 -64
WIRE 32 96 16 96
WIRE 128 112 128 -64
WIRE 128 112 96 112
WIRE 160 112 128 112
WIRE 464 112 384 112
WIRE 736 112 688 112
WIRE -256 128 -432 128
WIRE 32 128 -32 128
WIRE 64 176 64 144
WIRE 352 464 -496 464
WIRE -800 544 -800 496
WIRE -688 544 -688 496
WIRE -448 560 -448 528
WIRE -192 560 -192 528
WIRE 128 560 128 528
WIRE -800 656 -800 624
WIRE -688 656 -688 624
WIRE -448 656 -448 640
WIRE -192 656 -192 640
WIRE 128 656 128 640
WIRE -496 688 -496 464
WIRE 352 688 352 464
WIRE 352 688 -496 688
FLAG 128 656 0
FLAG -192 656 0
FLAG -448 656 0
FLAG -448 528 LO
FLAG -192 528 IN
FLAG -800 496 +15
FLAG -688 496 -15
FLAG -688 656 0
FLAG -800 656 0
FLAG 64 48 +15
FLAG 64 176 -15
FLAG -96 -32 0
FLAG 128 528 BV
FLAG -432 128 BV
SYMBOL envelopeDetector 256 128 R0
SYMATTR InstName X1
SYMBOL 4P_BP_Filter -192 144 R0
SYMATTR InstName X2
SYMBOL bv 128 544 R0
SYMATTR InstName B1
SYMATTR Value V=(V(LO)*V(IN))/10
SYMBOL voltage -192 544 R0
WINDOW 123 0 0 Left 0
WINDOW 39 0 0 Left 0
SYMATTR InstName V1
SYMATTR Value PWL file=A.txt
SYMBOL voltage -448 544 R0
WINDOW 123 0 0 Left 0
WINDOW 39 0 0 Left 0
SYMATTR InstName V2
SYMATTR Value SINE(0 1.5 72.5k)
SYMBOL OpAmps\\UniversalOpAmp 64 112 R0
SYMATTR InstName U1
SYMBOL voltage -800 528 R0
WINDOW 123 0 0 Left 0
WINDOW 39 0 0 Left 0
SYMATTR InstName V3
SYMATTR Value 15
SYMBOL voltage -688 528 R0
WINDOW 123 0 0 Left 0
WINDOW 39 0 0 Left 0
SYMATTR InstName V4
SYMATTR Value -15
SYMBOL res 128 -80 R90
WINDOW 0 0 56 VBottom 2
WINDOW 3 32 56 VTop 2
SYMATTR InstName R1
SYMATTR Value 6000
SYMBOL res 16 -80 R90
WINDOW 0 0 56 VBottom 2
WINDOW 3 32 56 VTop 2
SYMATTR InstName R2
SYMATTR Value 2000
SYMBOL thresholdDetector 576 112 R0
SYMATTR InstName X3
TEXT -16 320 Left 2 !.tran 4
TEXT -264 408 Left 2 ;Testing Sources
