Version 4
SHEET 1 880 680
WIRE -256 128 -368 128
WIRE 48 128 -32 128
WIRE 320 128 272 128
SYMBOL envelopeDetector 144 144 R0
SYMATTR InstName X1
SYMBOL 4P_BP_Filter -192 144 R0
SYMATTR InstName X2
TEXT -16 320 Left 2 !.tran 250m
