ESC_mounting
*SPICE Netlist generated by Advanced Sim server on 7/22/2021 19:59:29
.options MixedSimGenerated

*Schematic Netlist:


*Selected Circuit Analyses:
.TRAN 0.1u 5u 0 0.1u

.END
