Version 4
SHEET 1 880 680
WIRE 416 -160 304 -160
WIRE 304 -128 304 -160
WIRE 416 -96 416 -160
WIRE 304 16 304 -48
WIRE 304 16 160 16
WIRE 160 48 160 16
WIRE 304 112 304 16
WIRE 256 128 160 128
WIRE 160 160 160 128
WIRE 160 256 160 240
WIRE 304 256 304 208
WIRE 400 256 304 256
FLAG 400 336 0
FLAG 416 -96 0
FLAG 160 256 0
SYMBOL pmos 256 208 M180
SYMATTR InstName M1
SYMATTR Value AO6407
SYMBOL res 144 32 R0
SYMATTR InstName R1
SYMATTR Value 27k
SYMBOL res 144 144 R0
SYMATTR InstName R2
SYMATTR Value 1k
SYMBOL voltage 304 -32 R180
WINDOW 0 24 96 Left 2
WINDOW 3 24 16 Left 2
WINDOW 123 0 0 Left 0
WINDOW 39 0 0 Left 0
SYMATTR InstName V1
SYMATTR Value 3.3
SYMBOL res 384 240 R0
SYMATTR InstName R3
SYMATTR Value 100
TEXT -80 64 Left 2 !.tran 1
