Version 4
SHEET 1 880 680
WIRE 128 112 112 112
WIRE 208 112 192 112
WIRE 128 144 80 144
WIRE 272 144 192 144
WIRE 128 176 112 176
WIRE 208 176 192 176
WIRE 432 176 368 176
WIRE 768 176 656 176
WIRE 80 208 80 144
WIRE 128 208 80 208
WIRE 208 208 192 208
WIRE 80 224 80 208
WIRE 272 224 272 144
WIRE 64 384 64 368
WIRE 160 384 160 368
WIRE 304 384 304 368
WIRE 512 384 512 368
WIRE 64 480 64 464
WIRE 160 480 160 464
WIRE 304 480 304 464
WIRE 512 480 512 464
FLAG 64 480 0
FLAG 160 480 0
FLAG 304 480 0
FLAG 512 480 0
FLAG 80 224 0
FLAG 64 368 +15
FLAG 160 368 -15
FLAG 304 368 x
FLAG 512 368 lo
FLAG 112 112 x
FLAG 112 176 lo
FLAG 208 208 +15
FLAG 208 112 -15
FLAG 272 224 0
FLAG 208 176 out
FLAG 368 176 out
FLAG 768 176 end
SYMBOL AutoGenerated\\AD633J 160 160 R0
SYMATTR InstName U1
SYMBOL voltage 64 368 R0
WINDOW 123 0 0 Left 0
WINDOW 39 0 0 Left 0
SYMATTR InstName V1
SYMATTR Value 15
SYMBOL voltage 160 368 R0
WINDOW 123 0 0 Left 0
WINDOW 39 0 0 Left 0
SYMATTR InstName V2
SYMATTR Value -15
SYMBOL voltage 304 368 R0
WINDOW 123 0 0 Left 0
WINDOW 39 0 0 Left 0
SYMATTR InstName V3
SYMATTR Value SINE(0 10 25k)
SYMBOL voltage 512 368 R0
WINDOW 123 0 0 Left 0
WINDOW 39 0 0 Left 0
SYMATTR InstName V4
SYMATTR Value SINE(0 10 72.5k)
SYMBOL 4P_BP_Filter 496 192 R0
SYMATTR InstName X1
TEXT -104 88 Left 2 !.tran 0.0025
TEXT -160 40 Left 2 !.options cshunt 1e-15
