Version 4
SHEET 1 880 680
WIRE -80 80 -176 80
WIRE 336 80 176 80
WIRE -176 176 -176 160
WIRE 48 224 48 176
FLAG -176 176 0
FLAG 48 224 0
FLAG 336 80 Vout
SYMBOL PowerProducts\\LT1117-3.3 48 80 R0
SYMATTR InstName U1
SYMBOL voltage -176 64 R0
WINDOW 123 0 0 Left 0
WINDOW 39 0 0 Left 0
SYMATTR InstName V1
SYMATTR Value 5
TEXT -210 248 Left 2 !.dc V1 4 5.1 0.1
