Version 4
SHEET 1 880 680
WIRE 224 -32 16 -32
WIRE 16 128 16 -32
WIRE 176 128 16 128
WIRE 176 160 176 128
WIRE 224 224 224 144
WIRE 16 304 16 128
WIRE 224 304 16 304
FLAG 176 160 0
SYMBOL pmos 176 48 R0
SYMATTR InstName M1
SYMATTR Value AONS21303C
SYMBOL PowerProducts\\LTC4412 -144 176 R0
SYMATTR InstName U1
SYMBOL res 208 208 R0
SYMATTR InstName R1
SYMATTR Value 1000
SYMBOL voltage 224 -48 R0
WINDOW 123 0 0 Left 0
WINDOW 39 0 0 Left 0
SYMATTR InstName V1
SYMATTR Value 20
TEXT -278 326 Left 2 !.dc V1 0 20 0.1
