Version 4
SHEET 1 880 680
WIRE 64 -352 -416 -352
WIRE 336 -352 64 -352
WIRE 64 -304 64 -352
WIRE 336 -304 336 -352
WIRE -704 -224 -944 -224
WIRE 176 -208 64 -208
WIRE 336 -208 176 -208
WIRE -704 -192 -704 -224
WIRE 16 -176 16 -224
WIRE 288 -176 288 -224
WIRE 288 -96 16 -96
WIRE -704 -80 -704 -112
WIRE 176 -32 176 -208
WIRE 240 -32 176 -32
WIRE 368 -32 240 -32
WIRE 496 -32 448 -32
WIRE -944 0 -944 -224
WIRE -752 0 -944 0
WIRE 496 0 496 -32
WIRE -416 16 -416 -352
WIRE -416 16 -704 16
WIRE -752 32 -752 0
WIRE -416 96 -416 16
WIRE -272 96 -416 96
WIRE 80 96 -16 96
WIRE 192 96 160 96
WIRE 192 128 192 96
WIRE -272 176 -416 176
WIRE 288 176 288 -96
WIRE 288 176 -16 176
WIRE -416 256 -416 176
WIRE -272 256 -416 256
WIRE -416 272 -416 256
FLAG -752 32 0
FLAG -416 272 0
FLAG 192 128 0
FLAG 240 -32 Vout
FLAG 496 0 0
SYMBOL pmos -752 -80 R0
SYMATTR InstName M1
SYMATTR Value AONS21303C
SYMBOL PowerProducts\\LTC4412 -144 176 R0
SYMATTR InstName U1
SYMBOL voltage -704 -96 R180
WINDOW 123 0 0 Left 0
WINDOW 39 0 0 Left 0
SYMATTR InstName V1
SYMATTR Value 21
SYMBOL pmos 16 -304 R0
SYMATTR InstName M2
SYMATTR Value AONS21303C
SYMBOL pmos 288 -304 R0
SYMATTR InstName M3
SYMATTR Value AONS21303C
SYMBOL res 0 -192 R0
SYMATTR InstName R1
SYMATTR Value 1
SYMBOL res 272 -192 R0
SYMATTR InstName R2
SYMATTR Value 1
SYMBOL voltage 64 96 R270
WINDOW 0 24 96 Left 2
WINDOW 3 24 16 Left 2
WINDOW 123 0 0 Left 0
WINDOW 39 0 0 Left 0
SYMATTR InstName V2
SYMATTR Value 21
SYMBOL res 464 -48 R90
WINDOW 0 0 56 VBottom 2
WINDOW 3 32 56 VTop 2
SYMATTR InstName R3
SYMATTR Value 10
TEXT -280 328 Left 2 !.dc V1 0 21 1
