Version 4
SHEET 1 880 680
WIRE 64 -352 -416 -352
WIRE 336 -352 64 -352
WIRE 64 -304 64 -352
WIRE 336 -304 336 -352
WIRE -704 -224 -944 -224
WIRE 208 -208 64 -208
WIRE 336 -208 208 -208
WIRE -704 -192 -704 -224
WIRE 16 -176 16 -224
WIRE 288 -176 288 -224
WIRE 288 -96 16 -96
WIRE -704 -80 -704 -112
WIRE -944 0 -944 -224
WIRE -752 0 -944 0
WIRE -416 16 -416 -352
WIRE -416 16 -704 16
WIRE -752 32 -752 0
WIRE 592 64 512 64
WIRE -416 96 -416 16
WIRE -272 96 -416 96
WIRE 208 96 208 -208
WIRE 208 96 -16 96
WIRE -272 176 -416 176
WIRE 288 176 288 -96
WIRE 288 176 -16 176
WIRE 512 176 512 144
WIRE 512 176 288 176
WIRE 592 176 592 64
WIRE 592 176 512 176
WIRE 592 208 592 176
WIRE -416 256 -416 176
WIRE -272 256 -416 256
WIRE -416 272 -416 256
FLAG -752 32 0
FLAG -416 272 0
FLAG 592 208 0
SYMBOL pmos -752 -80 R0
SYMATTR InstName M1
SYMATTR Value AONS21303C
SYMBOL PowerProducts\\LTC4412 -144 176 R0
SYMATTR InstName U1
SYMBOL voltage -704 -96 R180
WINDOW 123 0 0 Left 0
WINDOW 39 0 0 Left 0
SYMATTR InstName V1
SYMATTR Value 21
SYMBOL pmos 16 -304 R0
SYMATTR InstName M2
SYMATTR Value AONS21303C
SYMBOL pmos 288 -304 R0
SYMATTR InstName M3
SYMATTR Value AONS21303C
SYMBOL res 0 -192 R0
SYMATTR InstName R1
SYMATTR Value 10
SYMBOL res 272 -192 R0
SYMATTR InstName R2
SYMATTR Value 10
SYMBOL voltage 512 160 R180
WINDOW 0 24 96 Left 2
WINDOW 3 24 16 Left 2
WINDOW 123 0 0 Left 0
WINDOW 39 0 0 Left 0
SYMATTR InstName V2
SYMATTR Value 21
TEXT -280 328 Left 2 !.dc V1 0 21 0.1
